 xtb: 6.7.1 (edcfbbe)
          08292613173D

 21 21  0     0  0            999 V2000
    3.3106    0.0795   -0.1747 c   0  0  0  0  0  0  0  0  0  0  0  0
    1.8312   -0.1268   -0.4725 c   0  0  0  0  0  0  0  0  0  0  0  0
    0.9477    0.3562    0.6839 c   0  0  0  0  0  0  0  0  0  0  0  0
   -0.5043    0.1428    0.3676 c   0  0  0  0  0  0  0  0  0  0  0  0
   -1.1316   -1.0531    0.6927 c   0  0  0  0  0  0  0  0  0  0  0  0
   -2.4599   -1.2657    0.3698 c   0  0  0  0  0  0  0  0  0  0  0  0
   -3.1804   -0.2832   -0.2873 c   0  0  0  0  0  0  0  0  0  0  0  0
   -2.5643    0.9112   -0.6193 c   0  0  0  0  0  0  0  0  0  0  0  0
   -1.2359    1.1203   -0.2948 c   0  0  0  0  0  0  0  0  0  0  0  0
    3.5242    1.1337   -0.0108 h   0  0  0  0  0  0  0  0  0  0  0  0
    3.6012   -0.4704    0.7181 h   0  0  0  0  0  0  0  0  0  0  0  0
    3.9200   -0.2687   -1.0055 h   0  0  0  0  0  0  0  0  0  0  0  0
    1.5594    0.4166   -1.3803 h   0  0  0  0  0  0  0  0  0  0  0  0
    1.6364   -1.1866   -0.6519 h   0  0  0  0  0  0  0  0  0  0  0  0
    1.2159   -0.1920    1.5897 h   0  0  0  0  0  0  0  0  0  0  0  0
    1.1386    1.4174    0.8585 h   0  0  0  0  0  0  0  0  0  0  0  0
   -0.5741   -1.8230    1.2079 h   0  0  0  0  0  0  0  0  0  0  0  0
   -2.9349   -2.1999    0.6327 h   0  0  0  0  0  0  0  0  0  0  0  0
   -4.2183   -0.4469   -0.5379 h   0  0  0  0  0  0  0  0  0  0  0  0
   -3.1212    1.6827   -1.1314 h   0  0  0  0  0  0  0  0  0  0  0  0
   -0.7603    2.0558   -0.5545 h   0  0  0  0  0  0  0  0  0  0  0  0
  1  2  1  0  0  0  0
  2  3  1  0  0  0  0
  3  4  1  0  0  0  0
  4  5  4  0  0  0  0
  5  6  4  0  0  0  0
  6  7  4  0  0  0  0
  7  8  4  0  0  0  0
  4  9  4  0  0  0  0
  8  9  4  0  0  0  0
  1 10  1  0  0  0  0
  1 11  1  0  0  0  0
  1 12  1  0  0  0  0
  2 13  1  0  0  0  0
  2 14  1  0  0  0  0
  3 15  1  0  0  0  0
  3 16  1  0  0  0  0
  5 17  1  0  0  0  0
  6 18  1  0  0  0  0
  7 19  1  0  0  0  0
  8 20  1  0  0  0  0
  9 21  1  0  0  0  0
M  END
