 xtb: 6.7.1 (edcfbbe)
          08292613183D

 62 65  0     0  0            999 V2000
    5.4156   -2.2958    0.4757 c   0  0  0  0  0  0  0  0  0  0  0  0
    5.2112   -0.8301    0.8861 c   0  0  0  0  0  0  0  0  0  0  0  0
    5.3940   -0.7266    2.4071 c   0  0  0  0  0  0  0  0  0  0  0  0
    6.2232    0.1138    0.2560 c   0  0  0  0  0  0  0  0  0  0  0  0
    5.9743    1.4828    0.3113 c   0  0  0  0  0  0  0  0  0  0  0  0
    6.8722    2.3930   -0.2118 c   0  0  0  0  0  0  0  0  0  0  0  0
    8.0444    1.9515   -0.8025 c   0  0  0  0  0  0  0  0  0  0  0  0
    8.3047    0.5950   -0.8607 c   0  0  0  0  0  0  0  0  0  0  0  0
    7.4033   -0.3160   -0.3343 c   0  0  0  0  0  0  0  0  0  0  0  0
    3.8209   -0.4272    0.4232 c   0  0  0  0  0  0  0  0  0  0  0  0
    3.6030   -0.2378   -0.9395 c   0  0  0  0  0  0  0  0  0  0  0  0
    2.3568    0.0863   -1.4282 c   0  0  0  0  0  0  0  0  0  0  0  0
    1.2674    0.2315   -0.5659 c   0  0  0  0  0  0  0  0  0  0  0  0
    0.0393    0.5818   -1.0974 n   0  0  0  0  0  0  0  0  0  0  0  0
   -1.2246    0.4030   -0.5642 c   0  0  0  0  0  0  0  0  0  0  0  0
   -1.5222   -0.5862    0.3704 c   0  0  0  0  0  0  0  0  0  0  0  0
   -2.8086   -0.7316    0.8564 c   0  0  0  0  0  0  0  0  0  0  0  0
   -3.8442    0.0817    0.4192 c   0  0  0  0  0  0  0  0  0  0  0  0
   -5.2676   -0.0063    0.9443 c   0  0  0  0  0  0  0  0  0  0  0  0
   -5.5290   -1.2752    1.7684 c   0  0  0  0  0  0  0  0  0  0  0  0
   -5.4885    1.2116    1.8533 c   0  0  0  0  0  0  0  0  0  0  0  0
   -6.2188   -0.0477   -0.2413 c   0  0  0  0  0  0  0  0  0  0  0  0
   -5.9369   -0.9255   -1.2849 c   0  0  0  0  0  0  0  0  0  0  0  0
   -6.7808   -1.0349   -2.3731 c   0  0  0  0  0  0  0  0  0  0  0  0
   -7.9309   -0.2663   -2.4401 c   0  0  0  0  0  0  0  0  0  0  0  0
   -8.2237    0.6066   -1.4088 c   0  0  0  0  0  0  0  0  0  0  0  0
   -7.3764    0.7136   -0.3179 c   0  0  0  0  0  0  0  0  0  0  0  0
   -3.5484    1.0467   -0.5409 c   0  0  0  0  0  0  0  0  0  0  0  0
   -2.2695    1.2067   -1.0265 c   0  0  0  0  0  0  0  0  0  0  0  0
    1.4878    0.0770    0.8009 c   0  0  0  0  0  0  0  0  0  0  0  0
    2.7419   -0.2565    1.2787 c   0  0  0  0  0  0  0  0  0  0  0  0
    6.3470   -2.6886    0.8770 h   0  0  0  0  0  0  0  0  0  0  0  0
    4.5973   -2.8953    0.8706 h   0  0  0  0  0  0  0  0  0  0  0  0
    5.4201   -2.4008   -0.6064 h   0  0  0  0  0  0  0  0  0  0  0  0
    6.4317   -0.9379    2.6594 h   0  0  0  0  0  0  0  0  0  0  0  0
    4.7654   -1.4482    2.9240 h   0  0  0  0  0  0  0  0  0  0  0  0
    5.1569    0.2735    2.7615 h   0  0  0  0  0  0  0  0  0  0  0  0
    5.0579    1.8358    0.7629 h   0  0  0  0  0  0  0  0  0  0  0  0
    6.6570    3.4507   -0.1595 h   0  0  0  0  0  0  0  0  0  0  0  0
    8.7483    2.6600   -1.2137 h   0  0  0  0  0  0  0  0  0  0  0  0
    9.2165    0.2387   -1.3185 h   0  0  0  0  0  0  0  0  0  0  0  0
    7.6351   -1.3678   -0.3941 h   0  0  0  0  0  0  0  0  0  0  0  0
    4.4295   -0.3383   -1.6285 h   0  0  0  0  0  0  0  0  0  0  0  0
    2.2148    0.2328   -2.4903 h   0  0  0  0  0  0  0  0  0  0  0  0
    0.0696    1.0308   -2.0008 h   0  0  0  0  0  0  0  0  0  0  0  0
   -0.7504   -1.2649    0.6984 h   0  0  0  0  0  0  0  0  0  0  0  0
   -2.9919   -1.5099    1.5804 h   0  0  0  0  0  0  0  0  0  0  0  0
   -5.2848   -2.1681    1.1980 h   0  0  0  0  0  0  0  0  0  0  0  0
   -4.9485   -1.2677    2.6881 h   0  0  0  0  0  0  0  0  0  0  0  0
   -6.5840   -1.3207    2.0329 h   0  0  0  0  0  0  0  0  0  0  0  0
   -6.4503    1.1543    2.3579 h   0  0  0  0  0  0  0  0  0  0  0  0
   -4.7089    1.2374    2.6126 h   0  0  0  0  0  0  0  0  0  0  0  0
   -5.4377    2.1369    1.2848 h   0  0  0  0  0  0  0  0  0  0  0  0
   -5.0370   -1.5229   -1.2448 h   0  0  0  0  0  0  0  0  0  0  0  0
   -6.5407   -1.7213   -3.1723 h   0  0  0  0  0  0  0  0  0  0  0  0
   -8.5927   -0.3481   -3.2899 h   0  0  0  0  0  0  0  0  0  0  0  0
   -9.1188    1.2109   -1.4498 h   0  0  0  0  0  0  0  0  0  0  0  0
   -7.6326    1.4029    0.4713 h   0  0  0  0  0  0  0  0  0  0  0  0
   -4.3390    1.6782   -0.9202 h   0  0  0  0  0  0  0  0  0  0  0  0
   -2.0667    1.9602   -1.7754 h   0  0  0  0  0  0  0  0  0  0  0  0
    0.6817    0.2464    1.4975 h   0  0  0  0  0  0  0  0  0  0  0  0
    2.8653   -0.3678    2.3444 h   0  0  0  0  0  0  0  0  0  0  0  0
  1  2  1  0  0  0  0
  2  3  1  0  0  0  0
  2  4  1  0  0  0  0
  4  5  4  0  0  0  0
  5  6  4  0  0  0  0
  6  7  4  0  0  0  0
  7  8  4  0  0  0  0
  4  9  4  0  0  0  0
  8  9  4  0  0  0  0
  2 10  1  0  0  0  0
 10 11  4  0  0  0  0
 11 12  4  0  0  0  0
 12 13  4  0  0  0  0
 13 14  1  0  0  0  0
 14 15  1  0  0  0  0
 15 16  4  0  0  0  0
 16 17  4  0  0  0  0
 17 18  4  0  0  0  0
 18 19  1  0  0  0  0
 19 20  1  0  0  0  0
 19 21  1  0  0  0  0
 19 22  1  0  0  0  0
 22 23  4  0  0  0  0
 23 24  4  0  0  0  0
 24 25  4  0  0  0  0
 25 26  4  0  0  0  0
 22 27  4  0  0  0  0
 26 27  4  0  0  0  0
 18 28  4  0  0  0  0
 15 29  4  0  0  0  0
 28 29  4  0  0  0  0
 13 30  4  0  0  0  0
 10 31  4  0  0  0  0
 30 31  4  0  0  0  0
  1 32  1  0  0  0  0
  1 33  1  0  0  0  0
  1 34  1  0  0  0  0
  3 35  1  0  0  0  0
  3 36  1  0  0  0  0
  3 37  1  0  0  0  0
  5 38  1  0  0  0  0
  6 39  1  0  0  0  0
  7 40  1  0  0  0  0
  8 41  1  0  0  0  0
  9 42  1  0  0  0  0
 11 43  1  0  0  0  0
 12 44  1  0  0  0  0
 14 45  1  0  0  0  0
 16 46  1  0  0  0  0
 17 47  1  0  0  0  0
 20 48  1  0  0  0  0
 20 49  1  0  0  0  0
 20 50  1  0  0  0  0
 21 51  1  0  0  0  0
 21 52  1  0  0  0  0
 21 53  1  0  0  0  0
 23 54  1  0  0  0  0
 24 55  1  0  0  0  0
 25 56  1  0  0  0  0
 26 57  1  0  0  0  0
 27 58  1  0  0  0  0
 28 59  1  0  0  0  0
 29 60  1  0  0  0  0
 30 61  1  0  0  0  0
 31 62  1  0  0  0  0
M  END
