 xtb: 6.7.1 (edcfbbe)
          08292613173D

 21 22  0     0  0            999 V2000
    2.3822   -1.1731   -0.1613 c   0  0  0  0  0  0  0  0  0  0  0  0
    1.4024   -0.0407   -0.0820 c   0  0  0  0  0  0  0  0  0  0  0  0
    1.8466    1.2566   -0.0819 c   0  0  0  0  0  0  0  0  0  0  0  0
    0.9573    2.3382   -0.0088 c   0  0  0  0  0  0  0  0  0  0  0  0
   -0.3874    2.1172    0.0647 c   0  0  0  0  0  0  0  0  0  0  0  0
   -0.8947    0.8012    0.0678 c   0  0  0  0  0  0  0  0  0  0  0  0
   -2.2809    0.5515    0.1431 c   0  0  0  0  0  0  0  0  0  0  0  0
   -2.7664   -0.7252    0.1457 c   0  0  0  0  0  0  0  0  0  0  0  0
   -1.8810   -1.8100    0.0728 c   0  0  0  0  0  0  0  0  0  0  0  0
   -0.5319   -1.6010   -0.0011 c   0  0  0  0  0  0  0  0  0  0  0  0
    0.0059   -0.2956   -0.0062 c   0  0  0  0  0  0  0  0  0  0  0  0
    3.3990   -0.7913   -0.2126 h   0  0  0  0  0  0  0  0  0  0  0  0
    2.1984   -1.7806   -1.0468 h   0  0  0  0  0  0  0  0  0  0  0  0
    2.3003   -1.8158    0.7146 h   0  0  0  0  0  0  0  0  0  0  0  0
    2.9074    1.4576   -0.1393 h   0  0  0  0  0  0  0  0  0  0  0  0
    1.3491    3.3450   -0.0114 h   0  0  0  0  0  0  0  0  0  0  0  0
   -1.0826    2.9427    0.1214 h   0  0  0  0  0  0  0  0  0  0  0  0
   -2.9538    1.3958    0.1989 h   0  0  0  0  0  0  0  0  0  0  0  0
   -3.8296   -0.9078    0.2037 h   0  0  0  0  0  0  0  0  0  0  0  0
   -2.2743   -2.8164    0.0755 h   0  0  0  0  0  0  0  0  0  0  0  0
    0.1338   -2.4484   -0.0566 h   0  0  0  0  0  0  0  0  0  0  0  0
  1  2  1  0  0  0  0
  2  3  2  0  0  0  0
  3  4  4  0  0  0  0
  4  5  2  0  0  0  0
  5  6  4  0  0  0  0
  6  7  4  0  0  0  0
  7  8  2  0  0  0  0
  8  9  4  0  0  0  0
  9 10  2  0  0  0  0
  2 11  4  0  0  0  0
  6 11  4  0  0  0  0
 10 11  4  0  0  0  0
  1 12  1  0  0  0  0
  1 13  1  0  0  0  0
  1 14  1  0  0  0  0
  3 15  1  0  0  0  0
  4 16  1  0  0  0  0
  5 17  1  0  0  0  0
  7 18  1  0  0  0  0
  8 19  1  0  0  0  0
  9 20  1  0  0  0  0
 10 21  1  0  0  0  0
M  END
