 xtb: 6.7.1 (edcfbbe)
          09022621313D

  3  2  0     0  0            999 V2000
    0.0040    0.3794    0.0000 o   0  0  0  0  0  0  0  0  0  0  0  0
   -0.7742   -0.1815    0.0000 h   0  0  0  0  0  0  0  0  0  0  0  0
    0.7701   -0.1979    0.0000 h   0  0  0  0  0  0  0  0  0  0  0  0
  1  2  1  0  0  0  0
  1  3  1  0  0  0  0
M  END
