 xtb: 6.7.1 (edcfbbe)
          08292613173D

 26 29  0     0  0            999 V2000
    3.4745   -0.3433    0.2067 c   0  0  0  0  0  0  0  0  0  0  0  0
    2.6851   -1.4646    0.0274 c   0  0  0  0  0  0  0  0  0  0  0  0
    1.2968   -1.3519   -0.0579 c   0  0  0  0  0  0  0  0  0  0  0  0
    0.4498   -2.4849   -0.2425 c   0  0  0  0  0  0  0  0  0  0  0  0
   -0.8941   -2.3521   -0.3224 c   0  0  0  0  0  0  0  0  0  0  0  0
   -1.5196   -1.0736   -0.2254 c   0  0  0  0  0  0  0  0  0  0  0  0
   -2.9035   -0.9124   -0.3051 c   0  0  0  0  0  0  0  0  0  0  0  0
   -3.4745    0.3433   -0.2067 c   0  0  0  0  0  0  0  0  0  0  0  0
   -2.6851    1.4646   -0.0274 c   0  0  0  0  0  0  0  0  0  0  0  0
   -1.2968    1.3519    0.0579 c   0  0  0  0  0  0  0  0  0  0  0  0
   -0.4498    2.4849    0.2425 c   0  0  0  0  0  0  0  0  0  0  0  0
    0.8941    2.3521    0.3224 c   0  0  0  0  0  0  0  0  0  0  0  0
    1.5196    1.0736    0.2254 c   0  0  0  0  0  0  0  0  0  0  0  0
    2.9035    0.9124    0.3051 c   0  0  0  0  0  0  0  0  0  0  0  0
    0.7030   -0.0695    0.0418 c   0  0  0  0  0  0  0  0  0  0  0  0
   -0.7030    0.0695   -0.0418 c   0  0  0  0  0  0  0  0  0  0  0  0
    4.5480   -0.4494    0.2706 h   0  0  0  0  0  0  0  0  0  0  0  0
    3.1404   -2.4420   -0.0483 h   0  0  0  0  0  0  0  0  0  0  0  0
    0.9137   -3.4585   -0.3172 h   0  0  0  0  0  0  0  0  0  0  0  0
   -1.5270   -3.2173   -0.4624 h   0  0  0  0  0  0  0  0  0  0  0  0
   -3.5285   -1.7830   -0.4451 h   0  0  0  0  0  0  0  0  0  0  0  0
   -4.5480    0.4494   -0.2706 h   0  0  0  0  0  0  0  0  0  0  0  0
   -3.1404    2.4420    0.0483 h   0  0  0  0  0  0  0  0  0  0  0  0
   -0.9137    3.4585    0.3172 h   0  0  0  0  0  0  0  0  0  0  0  0
    1.5270    3.2173    0.4624 h   0  0  0  0  0  0  0  0  0  0  0  0
    3.5285    1.7830    0.4451 h   0  0  0  0  0  0  0  0  0  0  0  0
  1  2  4  0  0  0  0
  2  3  4  0  0  0  0
  3  4  1  0  0  0  0
  4  5  2  0  0  0  0
  5  6  1  0  0  0  0
  6  7  4  0  0  0  0
  7  8  4  0  0  0  0
  8  9  4  0  0  0  0
  9 10  4  0  0  0  0
 10 11  1  0  0  0  0
 11 12  2  0  0  0  0
 12 13  1  0  0  0  0
  1 14  4  0  0  0  0
 13 14  4  0  0  0  0
  3 15  4  0  0  0  0
 13 15  4  0  0  0  0
  6 16  4  0  0  0  0
 10 16  4  0  0  0  0
 15 16  4  0  0  0  0
  1 17  1  0  0  0  0
  2 18  1  0  0  0  0
  4 19  1  0  0  0  0
  5 20  1  0  0  0  0
  7 21  1  0  0  0  0
  8 22  1  0  0  0  0
  9 23  1  0  0  0  0
 11 24  1  0  0  0  0
 12 25  1  0  0  0  0
 14 26  1  0  0  0  0
M  END
