 xtb: 6.7.1 (edcfbbe)
          08292613173D

 38 37  0     0  0            999 V2000
    6.3540    1.1114   -0.3888 c   0  0  0  0  0  0  0  0  0  0  0  0
    4.9173    0.7689   -0.7636 c   0  0  0  0  0  0  0  0  0  0  0  0
    4.1886    0.0525    0.3709 c   0  0  0  0  0  0  0  0  0  0  0  0
    2.7483   -0.2938    0.0010 c   0  0  0  0  0  0  0  0  0  0  0  0
    2.0208   -0.9968    1.1451 c   0  0  0  0  0  0  0  0  0  0  0  0
    0.6157   -1.4699    0.7717 c   0  0  0  0  0  0  0  0  0  0  0  0
   -0.3597   -0.3251    0.5068 c   0  0  0  0  0  0  0  0  0  0  0  0
   -1.7783   -0.8320    0.2586 c   0  0  0  0  0  0  0  0  0  0  0  0
   -2.7539    0.3086   -0.0214 c   0  0  0  0  0  0  0  0  0  0  0  0
   -4.1730   -0.1960   -0.2697 c   0  0  0  0  0  0  0  0  0  0  0  0
   -5.1494    0.9439   -0.5491 c   0  0  0  0  0  0  0  0  0  0  0  0
   -6.5633    0.4323   -0.7959 c   0  0  0  0  0  0  0  0  0  0  0  0
    6.3756    1.7623    0.4827 h   0  0  0  0  0  0  0  0  0  0  0  0
    6.8542    1.6202   -1.2097 h   0  0  0  0  0  0  0  0  0  0  0  0
    6.9124    0.2078   -0.1536 h   0  0  0  0  0  0  0  0  0  0  0  0
    4.3796    1.6862   -1.0147 h   0  0  0  0  0  0  0  0  0  0  0  0
    4.9160    0.1321   -1.6513 h   0  0  0  0  0  0  0  0  0  0  0  0
    4.7282   -0.8637    0.6231 h   0  0  0  0  0  0  0  0  0  0  0  0
    4.1895    0.6901    1.2584 h   0  0  0  0  0  0  0  0  0  0  0  0
    2.7479   -0.9425   -0.8784 h   0  0  0  0  0  0  0  0  0  0  0  0
    2.2208    0.6245   -0.2627 h   0  0  0  0  0  0  0  0  0  0  0  0
    1.9578   -0.3217    2.0019 h   0  0  0  0  0  0  0  0  0  0  0  0
    2.6104   -1.8643    1.4532 h   0  0  0  0  0  0  0  0  0  0  0  0
    0.6734   -2.1073   -0.1139 h   0  0  0  0  0  0  0  0  0  0  0  0
    0.2242   -2.0798    1.5901 h   0  0  0  0  0  0  0  0  0  0  0  0
   -0.0314    0.2453   -0.3636 h   0  0  0  0  0  0  0  0  0  0  0  0
   -0.3636    0.3504    1.3657 h   0  0  0  0  0  0  0  0  0  0  0  0
   -2.1205   -1.3932    1.1316 h   0  0  0  0  0  0  0  0  0  0  0  0
   -1.7721   -1.5184   -0.5917 h   0  0  0  0  0  0  0  0  0  0  0  0
   -2.7587    0.9956    0.8284 h   0  0  0  0  0  0  0  0  0  0  0  0
   -2.4124    0.8690   -0.8952 h   0  0  0  0  0  0  0  0  0  0  0  0
   -4.1681   -0.8824   -1.1200 h   0  0  0  0  0  0  0  0  0  0  0  0
   -4.5146   -0.7566    0.6039 h   0  0  0  0  0  0  0  0  0  0  0  0
   -5.1550    1.6300    0.3011 h   0  0  0  0  0  0  0  0  0  0  0  0
   -4.8085    1.5042   -1.4229 h   0  0  0  0  0  0  0  0  0  0  0  0
   -6.9283   -0.1128    0.0720 h   0  0  0  0  0  0  0  0  0  0  0  0
   -7.2421    1.2591   -0.9924 h   0  0  0  0  0  0  0  0  0  0  0  0
   -6.5820   -0.2382   -1.6525 h   0  0  0  0  0  0  0  0  0  0  0  0
  1  2  1  0  0  0  0
  2  3  1  0  0  0  0
  3  4  1  0  0  0  0
  4  5  1  0  0  0  0
  5  6  1  0  0  0  0
  6  7  1  0  0  0  0
  7  8  1  0  0  0  0
  8  9  1  0  0  0  0
  9 10  1  0  0  0  0
 10 11  1  0  0  0  0
 11 12  1  0  0  0  0
  1 13  1  0  0  0  0
  1 14  1  0  0  0  0
  1 15  1  0  0  0  0
  2 16  1  0  0  0  0
  2 17  1  0  0  0  0
  3 18  1  0  0  0  0
  3 19  1  0  0  0  0
  4 20  1  0  0  0  0
  4 21  1  0  0  0  0
  5 22  1  0  0  0  0
  5 23  1  0  0  0  0
  6 24  1  0  0  0  0
  6 25  1  0  0  0  0
  7 26  1  0  0  0  0
  7 27  1  0  0  0  0
  8 28  1  0  0  0  0
  8 29  1  0  0  0  0
  9 30  1  0  0  0  0
  9 31  1  0  0  0  0
 10 32  1  0  0  0  0
 10 33  1  0  0  0  0
 11 34  1  0  0  0  0
 11 35  1  0  0  0  0
 12 36  1  0  0  0  0
 12 37  1  0  0  0  0
 12 38  1  0  0  0  0
M  END
