 xtb: 6.7.1 (edcfbbe)
          08292613183D

 16 16  0     0  0            999 V2000
    2.0480    0.5880   -0.0703 c   0  0  0  0  0  0  0  0  0  0  0  0
    0.6515    0.2605   -0.0264 n   0  0  0  0  0  0  0  0  0  0  0  0
    0.1990   -1.0985    0.1470 c   0  0  0  0  0  0  0  0  0  0  0  0
   -1.3008   -0.9445    0.4239 c   0  0  0  0  0  0  0  0  0  0  0  0
   -1.6536    0.3869   -0.2370 c   0  0  0  0  0  0  0  0  0  0  0  0
   -0.3357    1.1491   -0.2689 c   0  0  0  0  0  0  0  0  0  0  0  0
   -0.1801    2.3304   -0.4824 o   0  0  0  0  0  0  0  0  0  0  0  0
    2.5350    0.3192    0.8703 h   0  0  0  0  0  0  0  0  0  0  0  0
    2.1289    1.6625   -0.2278 h   0  0  0  0  0  0  0  0  0  0  0  0
    2.5456    0.0627   -0.8905 h   0  0  0  0  0  0  0  0  0  0  0  0
    0.3847   -1.6823   -0.7654 h   0  0  0  0  0  0  0  0  0  0  0  0
    0.7332   -1.5765    0.9732 h   0  0  0  0  0  0  0  0  0  0  0  0
   -1.8774   -1.7785    0.0292 h   0  0  0  0  0  0  0  0  0  0  0  0
   -1.4743   -0.8838    1.4987 h   0  0  0  0  0  0  0  0  0  0  0  0
   -2.4168    0.9511    0.2947 h   0  0  0  0  0  0  0  0  0  0  0  0
   -1.9871    0.2537   -1.2682 h   0  0  0  0  0  0  0  0  0  0  0  0
  1  2  1  0  0  0  0
  2  3  1  0  0  0  0
  3  4  1  0  0  0  0
  4  5  1  0  0  0  0
  2  6  4  0  0  0  0
  5  6  1  0  0  0  0
  6  7  2  0  0  0  0
  1  8  1  0  0  0  0
  1  9  1  0  0  0  0
  1 10  1  0  0  0  0
  3 11  1  0  0  0  0
  3 12  1  0  0  0  0
  4 13  1  0  0  0  0
  4 14  1  0  0  0  0
  5 15  1  0  0  0  0
  5 16  1  0  0  0  0
M  END
